<?xml version="1.0" encoding="UTF-8"?>

<!-- generated on 2025-10-17T16:56:38.610675-05:00 by Eclipse SUMO netconvert v1_24_0+1073-6dda804b7f2
<netconvertConfiguration xmlns:xsi="http://www.w3.org/2001/XMLSchema-instance" xsi:noNamespaceSchemaLocation="http://sumo.dlr.de/xsd/netconvertConfiguration.xsd">

    <input>
        <node-files value="nodes.nod.xml"/>
        <edge-files value="edges.edg.xml"/>
        <connection-files value="connections.con.xml"/>
    </input>

    <output>
        <output-file value="network.net.xml"/>
    </output>

    <building_defaults>
        <default.junctions.keep-clear value="false"/>
    </building_defaults>

    <pedestrian>
        <sidewalks.guess value="true"/>
        <crossings.guess value="true"/>
    </pedestrian>

</netconvertConfiguration>
-->

<net version="1.20" junctionCornerDetail="5" walkingareas="true" limitTurnSpeed="5.50" xmlns:xsi="http://www.w3.org/2001/XMLSchema-instance" xsi:noNamespaceSchemaLocation="http://sumo.dlr.de/xsd/net_file.xsd">

    <location netOffset="200.00,200.00" convBoundary="0.00,0.00,400.00,400.00" origBoundary="-200.00,-200.00,200.00,200.00" projParameter="!"/>

    <edge id=":center_0" function="internal">
        <lane id=":center_0_0" index="0" allow="bicycle" speed="13.89" length="23.10" width="1.50" shape="192.85,211.40 193.35,204.60 194.45,200.00 195.55,195.40 196.05,188.60"/>
    </edge>
    <edge id=":center_1" function="internal">
        <lane id=":center_1_0" index="0" disallow="all" speed="7.21" length="5.41" width="1.50" shape="195.20,211.40 194.79,208.14 193.79,206.27"/>
    </edge>
    <edge id=":center_2" function="internal">
        <lane id=":center_2_0" index="0" disallow="all" speed="13.89" length="22.96" width="1.50" shape="198.40,211.40 198.03,204.61 197.22,200.00 196.42,195.39 196.05,188.60"/>
    </edge>
    <edge id=":center_3" function="internal">
        <lane id=":center_3_0" index="0" disallow="all" speed="10.03" length="9.94" width="1.50" shape="198.40,211.40 199.21,204.68 200.65,201.85"/>
    </edge>
    <edge id=":center_16" function="internal">
        <lane id=":center_16_0" index="0" disallow="all" speed="7.21" length="5.93" width="1.50" shape="193.79,206.27 193.55,205.81 191.49,204.42 188.60,203.95"/>
    </edge>
    <edge id=":center_17" function="internal">
        <lane id=":center_17_0" index="0" disallow="all" speed="10.03" length="12.95" width="1.50" shape="200.65,201.85 201.65,199.89 205.71,197.01 211.40,196.05"/>
    </edge>
    <edge id=":center_4" function="internal">
        <lane id=":center_4_0" index="0" allow="bicycle" speed="13.89" length="23.10" width="1.50" shape="211.40,207.15 204.60,206.65 200.00,205.55 195.40,204.45 188.60,203.95"/>
    </edge>
    <edge id=":center_5" function="internal">
        <lane id=":center_5_0" index="0" disallow="all" speed="7.21" length="5.41" width="1.50" shape="211.40,204.80 208.14,205.21 206.27,206.21"/>
    </edge>
    <edge id=":center_6" function="internal">
        <lane id=":center_6_0" index="0" disallow="all" speed="13.89" length="22.96" width="1.50" shape="211.40,201.60 204.61,201.97 200.00,202.78 195.39,203.58 188.60,203.95"/>
    </edge>
    <edge id=":center_7" function="internal">
        <lane id=":center_7_0" index="0" disallow="all" speed="10.03" length="9.94" width="1.50" shape="211.40,201.60 204.68,200.79 201.85,199.35"/>
    </edge>
    <edge id=":center_18" function="internal">
        <lane id=":center_18_0" index="0" disallow="all" speed="7.21" length="5.93" width="1.50" shape="206.27,206.21 205.81,206.45 204.42,208.51 203.95,211.40"/>
    </edge>
    <edge id=":center_19" function="internal">
        <lane id=":center_19_0" index="0" disallow="all" speed="10.03" length="12.95" width="1.50" shape="201.85,199.35 199.89,198.35 197.01,194.29 196.05,188.60"/>
    </edge>
    <edge id=":center_8" function="internal">
        <lane id=":center_8_0" index="0" allow="bicycle" speed="13.89" length="23.10" width="1.50" shape="207.15,188.60 206.65,195.40 205.55,200.00 204.45,204.60 203.95,211.40"/>
    </edge>
    <edge id=":center_9" function="internal">
        <lane id=":center_9_0" index="0" disallow="all" speed="7.21" length="5.41" width="1.50" shape="204.80,188.60 205.21,191.86 206.21,193.73"/>
    </edge>
    <edge id=":center_10" function="internal">
        <lane id=":center_10_0" index="0" disallow="all" speed="13.89" length="22.96" width="1.50" shape="201.60,188.60 201.97,195.39 202.78,200.00 203.58,204.61 203.95,211.40"/>
    </edge>
    <edge id=":center_11" function="internal">
        <lane id=":center_11_0" index="0" disallow="all" speed="10.03" length="9.94" width="1.50" shape="201.60,188.60 200.79,195.32 199.35,198.15"/>
    </edge>
    <edge id=":center_20" function="internal">
        <lane id=":center_20_0" index="0" disallow="all" speed="7.21" length="5.93" width="1.50" shape="206.21,193.73 206.45,194.19 208.51,195.58 211.40,196.05"/>
    </edge>
    <edge id=":center_21" function="internal">
        <lane id=":center_21_0" index="0" disallow="all" speed="10.03" length="12.95" width="1.50" shape="199.35,198.15 198.35,200.11 194.29,202.99 188.60,203.95"/>
    </edge>
    <edge id=":center_12" function="internal">
        <lane id=":center_12_0" index="0" allow="bicycle" speed="13.89" length="23.10" width="1.50" shape="188.60,192.85 195.40,193.35 200.00,194.45 204.60,195.55 211.40,196.05"/>
    </edge>
    <edge id=":center_13" function="internal">
        <lane id=":center_13_0" index="0" disallow="all" speed="7.21" length="5.41" width="1.50" shape="188.60,195.20 191.86,194.79 193.73,193.79"/>
    </edge>
    <edge id=":center_14" function="internal">
        <lane id=":center_14_0" index="0" disallow="all" speed="13.89" length="22.96" width="1.50" shape="188.60,198.40 195.39,198.03 200.00,197.22 204.61,196.42 211.40,196.05"/>
    </edge>
    <edge id=":center_15" function="internal">
        <lane id=":center_15_0" index="0" disallow="all" speed="10.03" length="9.94" width="1.50" shape="188.60,198.40 195.32,199.21 198.15,200.65"/>
    </edge>
    <edge id=":center_22" function="internal">
        <lane id=":center_22_0" index="0" disallow="all" speed="7.21" length="5.93" width="1.50" shape="193.73,193.79 194.19,193.55 195.58,191.49 196.05,188.60"/>
    </edge>
    <edge id=":center_23" function="internal">
        <lane id=":center_23_0" index="0" disallow="all" speed="10.03" length="12.95" width="1.50" shape="198.15,200.65 200.11,201.65 202.99,205.71 203.95,211.40"/>
    </edge>
    <edge id=":center_c0" function="crossing" crossingEdges="center_to_north north_near_to_center">
        <lane id=":center_c0_0" index="0" allow="pedestrian" speed="2.78" length="12.60" width="4.00" shape="204.70,209.40 192.10,209.40" outlineShape="204.80,211.40 192.00,211.40 192.00,209.35 191.71,207.68 191.61,207.40 192.10,207.40 204.70,207.40 207.11,208.50 206.38,208.78 205.44,209.46 204.89,210.33"/>
    </edge>
    <edge id=":center_c1" function="crossing" crossingEdges="center_to_east east_near_to_center">
        <lane id=":center_c1_0" index="0" allow="pedestrian" speed="2.78" length="12.60" width="4.00" shape="209.40,195.30 209.40,207.90" outlineShape="211.40,195.20 211.40,208.00 209.35,208.00 207.68,208.29 207.40,208.39 207.40,207.90 207.40,195.30 208.50,192.89 208.78,193.62 209.46,194.56 210.33,195.11"/>
    </edge>
    <edge id=":center_c2" function="crossing" crossingEdges="center_to_south south_near_to_center">
        <lane id=":center_c2_0" index="0" allow="pedestrian" speed="2.78" length="12.60" width="4.00" shape="195.30,190.60 207.90,190.60" outlineShape="195.20,188.60 208.00,188.60 208.00,190.65 208.29,192.32 208.39,192.60 207.90,192.60 195.30,192.60 192.89,191.50 193.62,191.22 194.56,190.54 195.11,189.67"/>
    </edge>
    <edge id=":center_c3" function="crossing" crossingEdges="center_to_west west_near_to_center">
        <lane id=":center_c3_0" index="0" allow="pedestrian" speed="2.78" length="12.60" width="4.00" shape="190.60,204.70 190.60,192.10" outlineShape="188.60,204.80 188.60,192.00 190.65,192.00 192.32,191.71 192.60,191.61 192.60,192.10 192.60,204.70 191.50,207.11 191.22,206.38 190.54,205.44 189.67,204.89"/>
    </edge>
    <edge id=":center_w0" function="walkingarea">
        <lane id=":center_w0_0" index="0" allow="pedestrian" speed="2.78" length="4.57" width="4.00" shape="188.60,204.70 188.60,206.70 190.10,211.40 192.10,211.40 192.00,209.35 191.71,207.68 191.22,206.38 190.54,205.44 189.67,204.89"/>
    </edge>
    <edge id=":center_w1" function="walkingarea">
        <lane id=":center_w1_0" index="0" allow="pedestrian" speed="2.78" length="4.57" width="4.00" shape="204.70,211.40 206.70,211.40 211.40,209.90 211.40,207.90 209.35,208.00 207.68,208.29 206.38,208.78 205.44,209.46 204.89,210.33"/>
    </edge>
    <edge id=":center_w2" function="walkingarea">
        <lane id=":center_w2_0" index="0" allow="pedestrian" speed="2.78" length="4.57" width="4.00" shape="211.40,195.30 211.40,193.30 209.90,188.60 207.90,188.60 208.00,190.65 208.29,192.32 208.78,193.62 209.46,194.56 210.33,195.11"/>
    </edge>
    <edge id=":center_w3" function="walkingarea">
        <lane id=":center_w3_0" index="0" allow="pedestrian" speed="2.78" length="4.57" width="4.00" shape="195.30,188.60 193.30,188.60 188.60,190.10 188.60,192.10 190.65,192.00 192.32,191.71 193.62,191.22 194.56,190.54 195.11,189.67"/>
    </edge>
    <edge id=":east_far_0" function="internal">
        <lane id=":east_far_0_0" index="0" allow="passenger" speed="3.65" length="4.67" shape="400.00,198.40 401.20,199.20 401.60,200.00 401.20,200.80 400.00,201.60"/>
    </edge>
    <edge id=":east_far_w0" function="walkingarea">
        <lane id=":east_far_w0_0" index="0" allow="pedestrian" speed="2.78" length="11.40" width="2.00" shape="400.00,204.70 400.00,206.70 400.00,193.30 400.00,195.30"/>
    </edge>
    <edge id=":east_near_0" function="internal">
        <lane id=":east_near_0_0" index="0" allow="bicycle" speed="13.89" length="8.54" width="1.50" shape="254.00,203.95 251.54,204.45 250.00,205.55 248.46,206.65 246.00,207.15"/>
        <lane id=":east_near_0_1" index="1" allow="passenger" speed="13.89" length="8.54" shape="254.00,201.60 251.54,202.10 250.00,203.20 248.46,204.30 246.00,204.80"/>
        <lane id=":east_near_0_2" index="2" allow="passenger" speed="13.89" length="8.54" shape="254.00,201.60 246.00,201.60"/>
    </edge>
    <edge id=":east_near_w0" function="walkingarea">
        <lane id=":east_near_w0_0" index="0" allow="pedestrian" speed="2.78" length="8.62" width="2.00" shape="246.00,207.90 246.00,209.90 254.00,206.70 254.00,204.70 252.21,204.94 250.97,205.53 250.00,206.30 249.03,207.07 247.79,207.66"/>
    </edge>
    <edge id=":north_far_0" function="internal">
        <lane id=":north_far_0_0" index="0" allow="passenger" speed="3.65" length="4.67" shape="201.60,400.00 200.80,401.20 200.00,401.60 199.20,401.20 198.40,400.00"/>
    </edge>
    <edge id=":north_far_w0" function="walkingarea">
        <lane id=":north_far_w0_0" index="0" allow="pedestrian" speed="2.78" length="11.40" width="2.00" shape="195.30,400.00 193.30,400.00 206.70,400.00 204.70,400.00"/>
    </edge>
    <edge id=":north_near_0" function="internal">
        <lane id=":north_near_0_0" index="0" allow="bicycle" speed="13.89" length="8.54" width="1.50" shape="196.05,254.00 195.55,251.54 194.45,250.00 193.35,248.46 192.85,246.00"/>
        <lane id=":north_near_0_1" index="1" allow="passenger" speed="13.89" length="8.54" shape="198.40,254.00 197.90,251.54 196.80,250.00 195.70,248.46 195.20,246.00"/>
        <lane id=":north_near_0_2" index="2" allow="passenger" speed="13.89" length="8.54" shape="198.40,254.00 198.40,246.00"/>
    </edge>
    <edge id=":north_near_w0" function="walkingarea">
        <lane id=":north_near_w0_0" index="0" allow="pedestrian" speed="2.78" length="8.62" width="2.00" shape="192.10,246.00 190.10,246.00 193.30,254.00 195.30,254.00 195.06,252.21 194.47,250.97 193.70,250.00 192.93,249.03 192.34,247.79"/>
    </edge>
    <edge id=":south_far_0" function="internal">
        <lane id=":south_far_0_0" index="0" allow="passenger" speed="3.65" length="4.67" shape="198.40,0.00 199.20,-1.20 200.00,-1.60 200.80,-1.20 201.60,0.00"/>
    </edge>
    <edge id=":south_far_w0" function="walkingarea">
        <lane id=":south_far_w0_0" index="0" allow="pedestrian" speed="2.78" length="11.40" width="2.00" shape="204.70,0.00 206.70,0.00 193.30,0.00 195.30,0.00"/>
    </edge>
    <edge id=":south_near_0" function="internal">
        <lane id=":south_near_0_0" index="0" allow="bicycle" speed="13.89" length="8.54" width="1.50" shape="203.95,146.00 204.45,148.46 205.55,150.00 206.65,151.54 207.15,154.00"/>
        <lane id=":south_near_0_1" index="1" allow="passenger" speed="13.89" length="8.54" shape="201.60,146.00 202.10,148.46 203.20,150.00 204.30,151.54 204.80,154.00"/>
        <lane id=":south_near_0_2" index="2" allow="passenger" speed="13.89" length="8.54" shape="201.60,146.00 201.60,154.00"/>
    </edge>
    <edge id=":south_near_w0" function="walkingarea">
        <lane id=":south_near_w0_0" index="0" allow="pedestrian" speed="2.78" length="8.62" width="2.00" shape="207.90,154.00 209.90,154.00 206.70,146.00 204.70,146.00 204.94,147.79 205.53,149.03 206.30,150.00 207.07,150.97 207.66,152.21"/>
    </edge>
    <edge id=":west_far_0" function="internal">
        <lane id=":west_far_0_0" index="0" allow="passenger" speed="3.65" length="4.67" shape="0.00,201.60 -1.20,200.80 -1.60,200.00 -1.20,199.20 0.00,198.40"/>
    </edge>
    <edge id=":west_far_w0" function="walkingarea">
        <lane id=":west_far_w0_0" index="0" allow="pedestrian" speed="2.78" length="11.40" width="2.00" shape="0.00,195.30 0.00,193.30 0.00,206.70 0.00,204.70"/>
    </edge>
    <edge id=":west_near_0" function="internal">
        <lane id=":west_near_0_0" index="0" allow="bicycle" speed="13.89" length="8.54" width="1.50" shape="146.00,196.05 148.46,195.55 150.00,194.45 151.54,193.35 154.00,192.85"/>
        <lane id=":west_near_0_1" index="1" allow="passenger" speed="13.89" length="8.54" shape="146.00,198.40 148.46,197.90 150.00,196.80 151.54,195.70 154.00,195.20"/>
        <lane id=":west_near_0_2" index="2" allow="passenger" speed="13.89" length="8.54" shape="146.00,198.40 154.00,198.40"/>
    </edge>
    <edge id=":west_near_w0" function="walkingarea">
        <lane id=":west_near_w0_0" index="0" allow="pedestrian" speed="2.78" length="8.62" width="2.00" shape="154.00,192.10 154.00,190.10 146.00,193.30 146.00,195.30 147.79,195.06 149.03,194.47 150.00,193.70 150.97,192.93 152.21,192.34"/>
    </edge>

    <edge id="center_to_east" from="center" to="east_far" priority="-1">
        <lane id="center_to_east_0" index="0" allow="pedestrian" speed="13.89" length="188.60" width="2.00" shape="211.40,194.30 400.00,194.30"/>
        <lane id="center_to_east_1" index="1" allow="bicycle" speed="13.89" length="188.60" width="1.50" shape="211.40,196.05 400.00,196.05"/>
        <lane id="center_to_east_2" index="2" allow="passenger" speed="13.89" length="188.60" shape="211.40,198.40 400.00,198.40"/>
    </edge>
    <edge id="center_to_north" from="center" to="north_far" priority="-1">
        <lane id="center_to_north_0" index="0" allow="pedestrian" speed="13.89" length="188.60" width="2.00" shape="205.70,211.40 205.70,400.00"/>
        <lane id="center_to_north_1" index="1" allow="bicycle" speed="13.89" length="188.60" width="1.50" shape="203.95,211.40 203.95,400.00"/>
        <lane id="center_to_north_2" index="2" allow="passenger" speed="13.89" length="188.60" shape="201.60,211.40 201.60,400.00"/>
    </edge>
    <edge id="center_to_south" from="center" to="south_far" priority="-1">
        <lane id="center_to_south_0" index="0" allow="pedestrian" speed="13.89" length="188.60" width="2.00" shape="194.30,188.60 194.30,0.00"/>
        <lane id="center_to_south_1" index="1" allow="bicycle" speed="13.89" length="188.60" width="1.50" shape="196.05,188.60 196.05,0.00"/>
        <lane id="center_to_south_2" index="2" allow="passenger" speed="13.89" length="188.60" shape="198.40,188.60 198.40,0.00"/>
    </edge>
    <edge id="center_to_west" from="center" to="west_far" priority="-1">
        <lane id="center_to_west_0" index="0" allow="pedestrian" speed="13.89" length="188.60" width="2.00" shape="188.60,205.70 0.00,205.70"/>
        <lane id="center_to_west_1" index="1" allow="bicycle" speed="13.89" length="188.60" width="1.50" shape="188.60,203.95 0.00,203.95"/>
        <lane id="center_to_west_2" index="2" allow="passenger" speed="13.89" length="188.60" shape="188.60,201.60 0.00,201.60"/>
    </edge>
    <edge id="east_far_to_near" from="east_far" to="east_near" priority="-1">
        <lane id="east_far_to_near_0" index="0" allow="pedestrian" speed="13.89" length="146.00" width="2.00" shape="400.00,205.70 254.00,205.70"/>
        <lane id="east_far_to_near_1" index="1" allow="bicycle" speed="13.89" length="146.00" width="1.50" shape="400.00,203.95 254.00,203.95"/>
        <lane id="east_far_to_near_2" index="2" allow="passenger" speed="13.89" length="146.00" shape="400.00,201.60 254.00,201.60"/>
    </edge>
    <edge id="east_near_to_center" from="east_near" to="center" priority="-1">
        <lane id="east_near_to_center_0" index="0" allow="pedestrian" speed="13.89" length="34.60" width="2.00" shape="246.00,208.90 211.40,208.90"/>
        <lane id="east_near_to_center_1" index="1" allow="bicycle" speed="13.89" length="34.60" width="1.50" shape="246.00,207.15 211.40,207.15"/>
        <lane id="east_near_to_center_2" index="2" allow="passenger" speed="13.89" length="34.60" shape="246.00,204.80 211.40,204.80"/>
        <lane id="east_near_to_center_3" index="3" allow="passenger" speed="13.89" length="34.60" shape="246.00,201.60 211.40,201.60"/>
    </edge>
    <edge id="north_far_to_near" from="north_far" to="north_near" priority="-1">
        <lane id="north_far_to_near_0" index="0" allow="pedestrian" speed="13.89" length="146.00" width="2.00" shape="194.30,400.00 194.30,254.00"/>
        <lane id="north_far_to_near_1" index="1" allow="bicycle" speed="13.89" length="146.00" width="1.50" shape="196.05,400.00 196.05,254.00"/>
        <lane id="north_far_to_near_2" index="2" allow="passenger" speed="13.89" length="146.00" shape="198.40,400.00 198.40,254.00"/>
    </edge>
    <edge id="north_near_to_center" from="north_near" to="center" priority="-1">
        <lane id="north_near_to_center_0" index="0" allow="pedestrian" speed="13.89" length="34.60" width="2.00" shape="191.10,246.00 191.10,211.40"/>
        <lane id="north_near_to_center_1" index="1" allow="bicycle" speed="13.89" length="34.60" width="1.50" shape="192.85,246.00 192.85,211.40"/>
        <lane id="north_near_to_center_2" index="2" allow="passenger" speed="13.89" length="34.60" shape="195.20,246.00 195.20,211.40"/>
        <lane id="north_near_to_center_3" index="3" allow="passenger" speed="13.89" length="34.60" shape="198.40,246.00 198.40,211.40"/>
    </edge>
    <edge id="south_far_to_near" from="south_far" to="south_near" priority="-1">
        <lane id="south_far_to_near_0" index="0" allow="pedestrian" speed="13.89" length="146.00" width="2.00" shape="205.70,0.00 205.70,146.00"/>
        <lane id="south_far_to_near_1" index="1" allow="bicycle" speed="13.89" length="146.00" width="1.50" shape="203.95,0.00 203.95,146.00"/>
        <lane id="south_far_to_near_2" index="2" allow="passenger" speed="13.89" length="146.00" shape="201.60,0.00 201.60,146.00"/>
    </edge>
    <edge id="south_near_to_center" from="south_near" to="center" priority="-1">
        <lane id="south_near_to_center_0" index="0" allow="pedestrian" speed="13.89" length="34.60" width="2.00" shape="208.90,154.00 208.90,188.60"/>
        <lane id="south_near_to_center_1" index="1" allow="bicycle" speed="13.89" length="34.60" width="1.50" shape="207.15,154.00 207.15,188.60"/>
        <lane id="south_near_to_center_2" index="2" allow="passenger" speed="13.89" length="34.60" shape="204.80,154.00 204.80,188.60"/>
        <lane id="south_near_to_center_3" index="3" allow="passenger" speed="13.89" length="34.60" shape="201.60,154.00 201.60,188.60"/>
    </edge>
    <edge id="west_far_to_near" from="west_far" to="west_near" priority="-1">
        <lane id="west_far_to_near_0" index="0" allow="pedestrian" speed="13.89" length="146.00" width="2.00" shape="0.00,194.30 146.00,194.30"/>
        <lane id="west_far_to_near_1" index="1" allow="bicycle" speed="13.89" length="146.00" width="1.50" shape="0.00,196.05 146.00,196.05"/>
        <lane id="west_far_to_near_2" index="2" allow="passenger" speed="13.89" length="146.00" shape="0.00,198.40 146.00,198.40"/>
    </edge>
    <edge id="west_near_to_center" from="west_near" to="center" priority="-1">
        <lane id="west_near_to_center_0" index="0" allow="pedestrian" speed="13.89" length="34.60" width="2.00" shape="154.00,191.10 188.60,191.10"/>
        <lane id="west_near_to_center_1" index="1" allow="bicycle" speed="13.89" length="34.60" width="1.50" shape="154.00,192.85 188.60,192.85"/>
        <lane id="west_near_to_center_2" index="2" allow="passenger" speed="13.89" length="34.60" shape="154.00,195.20 188.60,195.20"/>
        <lane id="west_near_to_center_3" index="3" allow="passenger" speed="13.89" length="34.60" shape="154.00,198.40 188.60,198.40"/>
    </edge>

    <tlLogic id="center" type="static" programID="0" offset="0">
        <phase duration="37" state="ggGgrrrrggGgrrrrrGrG"/>
        <phase duration="5"  state="ggGgrrrrggGgrrrrrrrr"/>
        <phase duration="3"  state="yyyyrrrryyyyrrrrrrrr"/>
        <phase duration="37" state="rrrrggGgrrrrggGgGrGr"/>
        <phase duration="5"  state="rrrrggGgrrrrggGgrrrr"/>
        <phase duration="3"  state="rrrryyyyrrrryyyyrrrr"/>
    </tlLogic>

    <junction id="center" type="traffic_light" x="200.00" y="200.00" incLanes="north_near_to_center_0 north_near_to_center_1 north_near_to_center_2 north_near_to_center_3 east_near_to_center_0 east_near_to_center_1 east_near_to_center_2 east_near_to_center_3 south_near_to_center_0 south_near_to_center_1 south_near_to_center_2 south_near_to_center_3 west_near_to_center_0 west_near_to_center_1 west_near_to_center_2 west_near_to_center_3 :center_w1_0 :center_w2_0 :center_w3_0 :center_w0_0" intLanes=":center_0_0 :center_16_0 :center_2_0 :center_17_0 :center_4_0 :center_18_0 :center_6_0 :center_19_0 :center_8_0 :center_20_0 :center_10_0 :center_21_0 :center_12_0 :center_22_0 :center_14_0 :center_23_0 :center_c0_0 :center_c1_0 :center_c2_0 :center_c3_0" shape="190.10,211.40 206.70,211.40 207.22,210.57 207.87,210.28 208.79,210.07 209.96,209.94 211.40,209.90 211.40,193.30 210.57,192.78 210.28,192.13 210.07,191.21 209.94,190.04 209.90,188.60 193.30,188.60 192.78,189.43 192.13,189.72 191.21,189.93 190.04,190.06 188.60,190.10 188.60,206.70 189.43,207.22 189.72,207.87 189.93,208.79 190.06,209.96">
        <request index="0"  response="01011010000010000100" foes="01011111100011010110" cont="0"/>
        <request index="1"  response="10010000000000000001" foes="10010000100001010001" cont="1"/>
        <request index="2"  response="01011010000010000000" foes="01011111100011010001" cont="0"/>
        <request index="3"  response="00111000011110000000" foes="00111101011111010000" cont="1"/>
        <request index="4"  response="10100000110101001111" foes="10101000110101101111" cont="0"/>
        <request index="5"  response="00110000010100010000" foes="00111000010100010000" cont="1"/>
        <request index="6"  response="10100000110100001111" foes="10101000110100011111" cont="0"/>
        <request index="7"  response="01100111110100001101" foes="01100111110100001101" cont="1"/>
        <request index="8"  response="01011000010010100000" foes="01011101011011111000" cont="0"/>
        <request index="9"  response="01100000000100000000" foes="01100101000100001000" cont="1"/>
        <request index="10" response="01011000000010100000" foes="01011101000111111000" cont="0"/>
        <request index="11" response="11001000000010000111" foes="11001101000011010111" cont="1"/>
        <request index="12" response="10100100111100001101" foes="10100110111110001101" cont="0"/>
        <request index="13" response="11000001000000000101" foes="11000001000010000101" cont="1"/>
        <request index="14" response="10100000111100001101" foes="10100001111110001101" cont="0"/>
        <request index="15" response="10010000110101111101" foes="10010000110101111101" cont="1"/>
        <request index="16" response="00000000000000000000" foes="00001000010100101111" cont="0"/>
        <request index="17" response="00000000000000000000" foes="00000101001011111000" cont="0"/>
        <request index="18" response="00000000000000000000" foes="00000010111110000101" cont="0"/>
        <request index="19" response="00000000000000000000" foes="00001111100001010010" cont="0"/>
    </junction>
    <junction id="east_far" type="priority" x="400.00" y="200.00" incLanes="center_to_east_0 center_to_east_1 center_to_east_2" intLanes=":east_far_0_0" shape="400.00,200.00 400.00,193.30 400.00,200.00">
        <request index="0" response="0" foes="0" cont="0"/>
    </junction>
    <junction id="east_near" type="priority" x="250.00" y="200.00" incLanes="east_far_to_near_0 east_far_to_near_1 east_far_to_near_2" intLanes=":east_near_0_0 :east_near_0_1 :east_near_0_2" shape="254.00,206.70 254.00,200.00 246.00,200.00 246.00,209.90 249.03,209.07 250.97,207.53 252.21,206.94">
        <request index="0" response="000" foes="000" cont="0"/>
        <request index="1" response="000" foes="000" cont="0"/>
        <request index="2" response="000" foes="000" cont="0"/>
    </junction>
    <junction id="north_far" type="priority" x="200.00" y="400.00" incLanes="center_to_north_0 center_to_north_1 center_to_north_2" intLanes=":north_far_0_0" shape="200.00,400.00 206.70,400.00 200.00,400.00">
        <request index="0" response="0" foes="0" cont="0"/>
    </junction>
    <junction id="north_near" type="priority" x="200.00" y="250.00" incLanes="north_far_to_near_0 north_far_to_near_1 north_far_to_near_2" intLanes=":north_near_0_0 :north_near_0_1 :north_near_0_2" shape="193.30,254.00 200.00,254.00 200.00,246.00 190.10,246.00 190.93,249.03 192.47,250.97 193.06,252.21">
        <request index="0" response="000" foes="000" cont="0"/>
        <request index="1" response="000" foes="000" cont="0"/>
        <request index="2" response="000" foes="000" cont="0"/>
    </junction>
    <junction id="south_far" type="priority" x="200.00" y="0.00" incLanes="center_to_south_0 center_to_south_1 center_to_south_2" intLanes=":south_far_0_0" shape="200.00,-0.00 193.30,0.00 200.00,0.00">
        <request index="0" response="0" foes="0" cont="0"/>
    </junction>
    <junction id="south_near" type="priority" x="200.00" y="150.00" incLanes="south_far_to_near_0 south_far_to_near_1 south_far_to_near_2" intLanes=":south_near_0_0 :south_near_0_1 :south_near_0_2" shape="200.00,154.00 209.90,154.00 209.07,150.97 207.53,149.03 206.94,147.79 206.70,146.00 200.00,146.00">
        <request index="0" response="000" foes="000" cont="0"/>
        <request index="1" response="000" foes="000" cont="0"/>
        <request index="2" response="000" foes="000" cont="0"/>
    </junction>
    <junction id="west_far" type="priority" x="0.00" y="200.00" incLanes="center_to_west_0 center_to_west_1 center_to_west_2" intLanes=":west_far_0_0" shape="-0.00,200.00 0.00,206.70 0.00,200.00">
        <request index="0" response="0" foes="0" cont="0"/>
    </junction>
    <junction id="west_near" type="priority" x="150.00" y="200.00" incLanes="west_far_to_near_0 west_far_to_near_1 west_far_to_near_2" intLanes=":west_near_0_0 :west_near_0_1 :west_near_0_2" shape="154.00,200.00 154.00,190.10 150.97,190.93 149.03,192.47 147.79,193.06 146.00,193.30 146.00,200.00">
        <request index="0" response="000" foes="000" cont="0"/>
        <request index="1" response="000" foes="000" cont="0"/>
        <request index="2" response="000" foes="000" cont="0"/>
    </junction>

    <junction id=":center_16_0" type="internal" x="193.79" y="206.27" incLanes=":center_1_0 north_near_to_center_1" intLanes=":center_0_0 :center_4_0 :center_6_0 :center_11_0 :center_c0_0 :center_c3_0"/>
    <junction id=":center_17_0" type="internal" x="200.65" y="201.85" incLanes=":center_3_0 south_near_to_center_1 south_near_to_center_2 south_near_to_center_3" intLanes=":center_4_0 :center_6_0 :center_7_0 :center_8_0 :center_9_0 :center_10_0 :center_12_0 :center_14_0 :center_15_0 :center_c0_0 :center_c1_0"/>
    <junction id=":center_18_0" type="internal" x="206.27" y="206.21" incLanes=":center_5_0 east_near_to_center_1" intLanes=":center_4_0 :center_8_0 :center_10_0 :center_15_0 :center_c0_0 :center_c1_0"/>
    <junction id=":center_19_0" type="internal" x="201.85" y="199.35" incLanes=":center_7_0 west_near_to_center_1 west_near_to_center_2 west_near_to_center_3" intLanes=":center_0_0 :center_2_0 :center_3_0 :center_8_0 :center_10_0 :center_11_0 :center_12_0 :center_13_0 :center_14_0 :center_c1_0 :center_c2_0"/>
    <junction id=":center_20_0" type="internal" x="206.21" y="193.73" incLanes=":center_9_0 south_near_to_center_1" intLanes=":center_3_0 :center_8_0 :center_12_0 :center_14_0 :center_c1_0 :center_c2_0"/>
    <junction id=":center_21_0" type="internal" x="199.35" y="198.15" incLanes=":center_11_0 north_near_to_center_1 north_near_to_center_2 north_near_to_center_3" intLanes=":center_0_0 :center_1_0 :center_2_0 :center_4_0 :center_6_0 :center_7_0 :center_12_0 :center_14_0 :center_15_0 :center_c2_0 :center_c3_0"/>
    <junction id=":center_22_0" type="internal" x="193.73" y="193.79" incLanes=":center_13_0 west_near_to_center_1" intLanes=":center_0_0 :center_2_0 :center_7_0 :center_12_0 :center_c2_0 :center_c3_0"/>