<?xml version="1.0" encoding="UTF-8"?>
<routes xmlns:xsi="http://www.w3.org/2001/XMLSchema-instance" xsi:noNamespaceSchemaLocation="http://sumo.dlr.de/xsd/routes_file.xsd">
    
    <!-- Define vehicle types -->
    <vType id="car" vClass="passenger" color="1,0,0"/>
    <vType id="bike" vClass="bicycle" color="0,1,0"/>
    <vType id="ped_pedestrian" vClass="pedestrian" color="0,0,1"/>
    
    <!-- ROUTES -->
    <route id="north_south" edges="north_far_to_near north_near_to_center center_to_south"/>
    <route id="north_west" edges="north_far_to_near north_near_to_center center_to_west"/>
    <route id="north_east" edges="north_far_to_near north_near_to_center center_to_east"/>
    
    <route id="south_north" edges="south_far_to_near south_near_to_center center_to_north"/>
    <route id="south_west" edges="south_far_to_near south_near_to_center center_to_west"/>
    <route id="south_east" edges="south_far_to_near south_near_to_center center_to_east"/>
    
    <route id="west_north" edges="west_far_to_near west_near_to_center center_to_north"/>
    <route id="west_south" edges="west_far_to_near west_near_to_center center_to_south"/>
    <route id="west_east" edges="west_far_to_near west_near_to_center center_to_east"/>
    
    <route id="east_north" edges="east_far_to_near east_near_to_center center_to_north"/>
    <route id="east_south" edges="east_far_to_near east_near_to_center center_to_south"/>
    <route id="east_west" edges="east_far_to_near east_near_to_center center_to_west"/>
    
    
    <flow id="flow_N_S" type="car" route="north_south" begin="0" end="3600" number="248" departSpeed="max"/>
    <flow id="flow_N_W" type="car" route="north_west" begin="0" end="3600" number="70" departSpeed="max"/>
    <flow id="flow_N_E" type="car" route="north_east" begin="0" end="3600" number="38" departSpeed="max"/>
    
    <flow id="flow_S_N" type="car" route="south_north" begin="0" end="3600" number="446" departSpeed="max"/>
    <flow id="flow_S_W" type="car" route="south_west" begin="0" end="3600" number="64" departSpeed="max"/>
    <flow id="flow_S_E" type="car" route="south_east" begin="0" end="3600" number="18" departSpeed="max"/>
    
    <flow id="flow_W_N" type="car" route="west_north" begin="0" end="3600" number="58" departSpeed="max"/>
    <flow id="flow_W_S" type="car" route="west_south" begin="0" end="3600" number="42" departSpeed="max"/>
    <flow id="flow_W_E" type="car" route="west_east" begin="0" end="3600" number="44" departSpeed="max"/>
    

    <flow id="flow_E_N" type="car" route="east_north" begin="0" end="3600" number="8" departSpeed="max"/>
    <flow id="flow_E_S" type="car" route="east_south" begin="0" end="3600" number="4" departSpeed="max"/>
    <flow id="flow_E_W" type="car" route="east_west" begin="0" end="3600" number="26" departSpeed="max"/>
    
    <!-- <flow id="bike_N_S" type="bike" route="north_south" begin="0" end="3600" number="10" departSpeed="max"/> -->
    <!-- <flow id="bike_S_N" type="bike" route="south_north" begin="0" end="3600" number="10" departSpeed="max"/> -->
    
</routes>